159
scf done:-513.527224
C     5.117978    -1.655753     0.289204
C     4.548861    -3.021636     0.432961
N     3.709895    -3.182081     1.532455
C     3.013354    -4.376689     1.844910
C     2.509530    -5.217442     0.850297
H     2.654888    -5.002891    -0.212694
C     1.790319    -6.348859     1.214769
C     1.540761    -6.637329     2.551924
C     0.745800    -7.839804     2.938077
C    -0.505836    -8.023692     2.076059
H    -0.244612    -8.509191     1.111572
H    -1.194370    -8.752953     2.557377
C    -1.220403    -6.730894     1.864198
C    -1.690160    -6.012250     2.960251
H    -1.544896    -6.398612     3.973662
C    -2.340769    -4.798940     2.785435
C    -2.540931    -4.312588     1.490396
C    -2.099032    -5.038397     0.381958
H    -2.260297    -4.677193    -0.638041
C    -1.433708    -6.240832     0.579419
H    -1.079016    -6.798100    -0.293533
N    -3.194584    -3.064866     1.301001
C    -4.344112    -2.619056     2.026018
O    -4.896196    -3.255240     2.898935
C    -4.674736    -1.259984     1.496402
O    -6.261453    -1.819875     0.356139
N    -5.762637    -2.107184    -0.752543
C    -5.716263    -3.508179    -1.158798
C    -5.960954    -4.525732    -0.236736
C    -5.955335    -5.843869    -0.669684
H    -6.139191    -6.625028     0.075815
C    -5.720509    -6.168026    -2.007177
C    -5.711889    -7.621706    -2.403060
C    -7.088856    -8.219580    -2.102829
H    -7.153274    -9.273718    -2.410209
H    -7.346338    -8.199574    -1.034883
H    -7.890779    -7.684090    -2.630881
C    -4.634185    -8.346181    -1.591613
H    -4.830620    -8.345180    -0.510532
H    -4.544751    -9.403680    -1.880649
H    -3.642835    -7.891896    -1.732265
C    -5.412010    -7.839859    -3.886760
H    -5.401131    -8.909462    -4.146860
H    -6.164992    -7.379993    -4.542710
H    -4.427259    -7.448337    -4.179512
C    -5.513658    -5.134348    -2.916817
H    -5.346309    -5.326115    -3.980575
C    -5.519248    -3.806733    -2.506061
H    -5.388113   -3.021776    -3.258174
H    -6.159551    -4.303375     0.818902
C    -4.869543    -1.202938    -1.301694
C    -3.757552    -0.937882     0.496989
C    -2.810608    -2.079913     0.340990
O    -1.881658    -2.189757    -0.433563
H    -3.431807     0.072502     0.247998
H    -4.137714    -1.597377    -2.031115
C    -5.231809     0.210236    -1.488200
C    -6.501791     0.705002    -1.205284
H    -7.284396     0.048602    -0.817696
C    -6.760678     2.054400    -1.449881
O    -7.966071     2.658464    -1.254000
C    -8.856440     2.041403    -0.342781
C    -9.914962     3.113007    -0.056366
C   -10.956772     2.557085     0.898774
H   -11.474201     1.677467     0.488987
H   -10.522191     2.251380     1.861622
H   -11.733993     3.300922  1.126788
H   -10.390304     3.454181    -1.000268
H    -9.441512     4.024619     0.365337
H    -9.314822     1.134520    -0.797485
H    -8.348027     1.716869     0.593208
C    -5.789136     2.905176    -1.987855
H    -6.021836     3.957272    -2.185196
C    -4.536035     2.381838    -2.276419
C    -4.249108     1.045211    -2.026602
H    -3.252221     0.649823    -2.249282
C    -3.500378     3.275873    -2.875534
H    -3.854742     3.676386    -3.851111
H    -2.554953     2.742468    -3.113472
C    -3.205945     4.376642    -1.893881
O    -2.431910     4.329547    -0.950058
O    -3.901009     5.499857    -2.138296
H    -3.702437     6.201709    -1.494099
H    -5.294334    -0.567630     2.066604
H    -2.685551    -4.242139     3.662030
H     1.393119    -8.741464     2.865974
H     0.458401    -7.799096     4.011044
C     2.053500    -5.797392     3.538100
H     1.878357    -6.014123     4.596679
C     2.792291    -4.676281     3.196018
H     3.190628    -4.035714     3.988776
H  1.416383    -7.007950     0.425428
H     3.621221    -2.421345     2.199384
O     4.815240    -3.925747    -0.347855
C     4.296116    -0.537220     0.352473
C     4.864655     0.730075     0.212370
C     4.043758     1.869092     0.310005
C     3.348711     2.820749     0.409442
C     2.511907     3.945850     0.536878
C     1.327901     3.841848     1.268831
C     0.505749     4.952137     1.408208
H    -0.416053     4.871152     1.993798
C     0.870463     6.154938     0.812928
C     0.037184     7.371907     0.974055
N    -1.328692     7.178869     0.743174
H    -1.635108     6.291978     0.337094
C    -2.298799     8.203379     0.847851
N    -3.376385     8.037356     0.011964
C    -4.351157     8.969938     0.089232
C    -5.530378 8.795768    -0.811596
H    -5.471955     7.909507    -1.461622
H    -6.458619     8.700512    -0.227795
H    -5.649525     9.666657    -1.474128
C    -4.304888    10.072537     0.951934
H    -5.119067    10.799935     0.955962
C    -3.208359    10.208180     1.793152
C    -3.104023    11.350359     2.738045
H    -3.982881    12.011116     2.727092
H    -2.980400    11.005614     3.776274
H    -2.230749    11.979370     2.504854
C    -2.186875     9.260483     1.761343
H    -1.339085     9.358141     2.444021
O     0.518070     8.454755     1.280546
C     2.052231     6.263636     0.085484
C     2.875847     5.155345    -0.056880
H     3.806018     5.230130    -0.627649
H     2.334346     7.221299    -0.365543
H     1.048340     2.890054     1.730140
C     6.233885     0.877249    -0.007523
H     6.673154     1.873419    -0.118240
C     7.036412    -0.260794    -0.087058
C     6.483266    -1.534688     0.059493
H     7.115325    -2.426644    -0.012642
C     8.417498    -0.124707    -0.315804
C     9.578863    -0.012050    -0.509194
C    10.960897     0.120915    -0.738271
C    11.754024    -1.012604    -0.898708
H    11.302761    -2.008216    -0.847703
C    13.118883    -0.877438    -1.124535
H    13.699964    -1.795666    -1.244451
C    13.708357     0.381924    -1.193279
C    12.901534     1.510738    -1.031198
C    11.538980     1.388754    -0.805390
H    10.918634     2.281108    -0.680325
H    13.327033     2.517932    -1.078953
C    15.181590     0.583751    -1.435661
C    15.952184    -0.728041    -1.593364
H    15.600763    -1.323384    -2.448206
H    15.893534    -1.361754    -0.696905
H    17.024624    -0.552625    -1.768915
C    15.362871     1.395674    -2.721130
H    14.891896     0.903269    -3.583893
H    14.932556     2.404752    -2.660677
H    16.424517     1.534325    -2.973121
C    15.777906     1.341686    -0.246327
H    15.359776     2.349951    -0.121250
H    15.609233     0.810566     0.701337
H    16.864881     1.475816    -0.347918
H    3.214462    -0.636478     0.49164